*****
 OpenBabel05141720593D

 73 78  0  0  1  0  0  0  0  0999 V2000
   -1.5910    0.2826   -2.4283 O   0  0  0  0  0  0  0  0  0  0  0  0
   -3.8584   -1.9101   -1.3100 O   0  0  0  0  0  0  0  0  0  0  0  0
   -1.7264    2.3556   -0.9250 O   0  0  0  0  0  0  0  0  0  0  0  0
   -3.7662    1.8445    0.9863 O   0  0  0  0  0  0  0  0  0  0  0  0
    2.7467    2.0249   -0.5243 O   0  0  0  0  0  0  0  0  0  0  0  0
   -0.8060    4.4362   -0.9787 O   0  0  0  0  0  0  0  0  0  0  0  0
   -1.4662   -1.4722   -0.7496 C   0  0  1  0  0  0  0  0  0  0  0  0
   -1.0826    0.0170   -1.0968 C   0  0  2  0  0  0  0  0  0  0  0  0
   -0.6380   -1.9404    0.4682 C   0  0  2  0  0  0  0  0  0  0  0  0
   -2.9289   -1.7216   -0.2284 C   0  0  1  0  0  0  0  0  0  0  0  0
    0.8995   -1.9198    0.2418 C   0  0  1  0  0  0  0  0  0  0  0  0
   -1.6961    1.1198   -0.1290 C   0  0  2  0  0  0  0  0  0  0  0  0
    1.3634   -0.4626   -0.1074 C   0  0  2  0  0  0  0  0  0  0  0  0
    0.4730    0.1300   -1.2649 C   0  0  0  0  0  0  0  0  0  0  0  0
   -3.4664   -0.5961    0.7253 C   0  0  1  0  0  0  0  0  0  0  0  0
   -1.2908   -3.2681    0.8846 C   0  0  0  0  0  0  0  0  0  0  0  0
   -2.7889   -3.0747    0.5459 C   0  0  0  0  0  0  0  0  0  0  0  0
   -3.2002    0.8240    0.1496 C   0  0  1  0  0  0  0  0  0  0  0  0
   -1.1985   -2.4177   -1.9885 C   0  0  0  0  0  0  0  0  0  0  0  0
    2.9296   -0.3881   -0.3575 C   0  0  1  0  0  0  0  0  0  0  0  0
    1.6323   -2.4306    1.5042 C   0  0  0  0  0  0  0  0  0  0  0  0
   -0.8526    1.6308    1.0631 C   0  0  0  0  0  0  0  0  0  0  0  0
   -4.9779   -0.7704    1.0467 C   0  0  0  0  0  0  0  0  0  0  0  0
    3.7091   -1.0584    0.8532 C   0  0  1  0  0  0  0  0  0  0  0  0
    3.1659   -2.4390    1.3285 C   0  0  2  0  0  0  0  0  0  0  0  0
    3.2633   -1.0319   -1.7428 C   0  0  0  0  0  0  0  0  0  0  0  0
    3.4724    1.0555   -0.4363 C   0  0  0  0  0  0  0  0  0  0  0  0
   -0.4158    2.8874    0.8160 C   0  0  0  0  0  0  0  0  0  0  0  0
   -0.9566    3.3539   -0.4454 C   0  0  0  0  0  0  0  0  0  0  0  0
   -0.8406    1.0175    2.4622 C   0  0  0  0  0  0  0  0  0  0  0  0
    5.2295   -1.1458    0.5309 C   0  0  0  0  0  0  0  0  0  0  0  0
    4.9359    1.2249   -0.3274 C   0  0  0  0  0  0  0  0  0  0  0  0
    5.7463    0.1883    0.0360 C   0  0  0  0  0  0  0  0  0  0  0  0
    0.3892    3.8602    1.6390 C   0  0  0  0  0  0  0  0  0  0  0  0
   -0.8405   -1.2711    1.2914 H   0  0  0  0  0  0  0  0  0  0  0  0
    1.1425   -2.5972   -0.5756 H   0  0  0  0  0  0  0  0  0  0  0  0
    1.1902    0.1525    0.7692 H   0  0  0  0  0  0  0  0  0  0  0  0
    0.7144    1.1749   -1.4504 H   0  0  0  0  0  0  0  0  0  0  0  0
    0.7261   -0.3823   -2.1916 H   0  0  0  0  0  0  0  0  0  0  0  0
   -2.9553   -0.6942    1.6781 H   0  0  0  0  0  0  0  0  0  0  0  0
   -1.1477   -3.4704    1.9486 H   0  0  0  0  0  0  0  0  0  0  0  0
   -0.8736   -4.1036    0.3175 H   0  0  0  0  0  0  0  0  0  0  0  0
   -3.1277   -3.9122   -0.0701 H   0  0  0  0  0  0  0  0  0  0  0  0
   -3.3816   -3.0904    1.4623 H   0  0  0  0  0  0  0  0  0  0  0  0
   -3.7219    0.8841   -0.8099 H   0  0  0  0  0  0  0  0  0  0  0  0
   -1.8207   -2.1521   -2.8457 H   0  0  0  0  0  0  0  0  0  0  0  0
   -1.4235   -3.4632   -1.7759 H   0  0  0  0  0  0  0  0  0  0  0  0
   -0.1660   -2.3814   -2.3324 H   0  0  0  0  0  0  0  0  0  0  0  0
    1.3027   -3.4417    1.7520 H   0  0  0  0  0  0  0  0  0  0  0  0
    1.3687   -1.8013    2.3581 H   0  0  0  0  0  0  0  0  0  0  0  0
   -2.5657    0.2923   -2.4477 H   0  0  0  0  0  0  0  0  0  0  0  0
   -4.0474   -1.0577   -1.7399 H   0  0  0  0  0  0  0  0  0  0  0  0
   -5.1888   -1.7644    1.4433 H   0  0  0  0  0  0  0  0  0  0  0  0
   -5.3015   -0.0515    1.8028 H   0  0  0  0  0  0  0  0  0  0  0  0
   -5.5942   -0.6187    0.1579 H   0  0  0  0  0  0  0  0  0  0  0  0
    4.3308   -1.0379   -1.9597 H   0  0  0  0  0  0  0  0  0  0  0  0
    2.9003   -2.0558   -1.8235 H   0  0  0  0  0  0  0  0  0  0  0  0
    2.8236   -0.4478   -2.5536 H   0  0  0  0  0  0  0  0  0  0  0  0
   -3.5240    1.6711    1.9085 H   0  0  0  0  0  0  0  0  0  0  0  0
   -0.0930    0.2300    2.5542 H   0  0  0  0  0  0  0  0  0  0  0  0
   -0.5606    1.7592    3.2103 H   0  0  0  0  0  0  0  0  0  0  0  0
   -1.8059    0.6357    2.7786 H   0  0  0  0  0  0  0  0  0  0  0  0
    5.4225   -1.9008   -0.2349 H   0  0  0  0  0  0  0  0  0  0  0  0
    5.7852   -1.4646    1.4155 H   0  0  0  0  0  0  0  0  0  0  0  0
    5.3098    2.2412   -0.4013 H   0  0  0  0  0  0  0  0  0  0  0  0
    6.8184    0.3466    0.1239 H   0  0  0  0  0  0  0  0  0  0  0  0
    1.2652    4.2003    1.0839 H   0  0  0  0  0  0  0  0  0  0  0  0
    0.7456    3.4164    2.5695 H   0  0  0  0  0  0  0  0  0  0  0  0
   -0.2098    4.7370    1.8983 H   0  0  0  0  0  0  0  0  0  0  0  0
    3.5630   -0.0130    2.3169 Cl  0  0  0  0  0  0  0  0  0  0  0  0
    3.5816   -3.5361    0.5087 O   0  0  0  0  0  0  0  0  0  0  0  0
    3.5948   -2.6334    2.3162 H   0  0  0  0  0  0  0  0  0  0  0  0
    3.0661   -3.5513   -0.3075 H   0  0  0  0  0  0  0  0  0  0  0  0
  1 51  1  0  0  0  0
  2 52  1  0  0  0  0
  3 29  1  0  0  0  0
  4 18  1  0  0  0  0
  4 59  1  0  0  0  0
  5 27  2  0  0  0  0
  6 29  2  0  0  0  0
  7  8  1  0  0  0  0
  7  9  1  0  0  0  0
  7 10  1  0  0  0  0
  7 19  1  6  0  0  0
  8  1  1  6  0  0  0
  8 12  1  0  0  0  0
  8 14  1  0  0  0  0
  9 11  1  0  0  0  0
  9 16  1  0  0  0  0
  9 35  1  1  0  0  0
 10  2  1  6  0  0  0
 10 15  1  0  0  0  0
 10 17  1  0  0  0  0
 11 13  1  0  0  0  0
 11 21  1  0  0  0  0
 11 36  1  6  0  0  0
 12  3  1  6  0  0  0
 12 18  1  0  0  0  0
 12 22  1  0  0  0  0
 13 14  1  0  0  0  0
 13 20  1  0  0  0  0
 13 37  1  1  0  0  0
 14 38  1  0  0  0  0
 14 39  1  0  0  0  0
 15 18  1  0  0  0  0
 15 23  1  0  0  0  0
 15 40  1  1  0  0  0
 16 17  1  0  0  0  0
 16 41  1  0  0  0  0
 16 42  1  0  0  0  0
 17 43  1  0  0  0  0
 17 44  1  0  0  0  0
 18 45  1  6  0  0  0
 19 46  1  0  0  0  0
 19 47  1  0  0  0  0
 19 48  1  0  0  0  0
 20 24  1  0  0  0  0
 20 26  1  6  0  0  0
 20 27  1  0  0  0  0
 21 25  1  0  0  0  0
 21 49  1  0  0  0  0
 21 50  1  0  0  0  0
 22 28  2  0  0  0  0
 22 30  1  0  0  0  0
 23 53  1  0  0  0  0
 23 54  1  0  0  0  0
 23 55  1  0  0  0  0
 24 25  1  0  0  0  0
 24 31  1  0  0  0  0
 24 70  1  1  0  0  0
 25 71  1  0  0  0  0
 25 72  1  1  0  0  0
 26 56  1  0  0  0  0
 26 57  1  0  0  0  0
 26 58  1  0  0  0  0
 27 32  1  0  0  0  0
 28 29  1  0  0  0  0
 28 34  1  0  0  0  0
 30 60  1  0  0  0  0
 30 61  1  0  0  0  0
 30 62  1  0  0  0  0
 31 33  1  0  0  0  0
 31 63  1  0  0  0  0
 31 64  1  0  0  0  0
 32 33  2  0  0  0  0
 32 65  1  0  0  0  0
 33 66  1  0  0  0  0
 34 67  1  0  0  0  0
 34 68  1  0  0  0  0
 34 69  1  0  0  0  0
 71 73  1  0  0  0  0
M  END
