*****
 OpenBabel05141711123D

 82 87  0  0  1  0  0  0  0  0999 V2000
    6.5732    0.1493    0.6548 O   0  0  0  0  0  0  0  0  0  0  0  0
    3.8122    0.2134   -0.7685 O   0  0  0  0  0  0  0  0  0  0  0  0
   -4.9176   -2.7377    0.5577 O   0  0  0  0  0  0  0  0  0  0  0  0
    4.8023    2.1406    0.0847 O   0  0  0  0  0  0  0  0  0  0  0  0
   -5.2770    0.7223    0.3342 C   0  0  1  0  0  0  0  0  0  0  0  0
   -4.5376   -0.5236   -0.3091 C   0  0  2  0  0  0  0  0  0  0  0  0
   -3.0429   -0.6157    0.2240 C   0  0  2  0  0  0  0  0  0  0  0  0
   -2.2877    0.7545    0.0435 C   0  0  1  0  0  0  0  0  0  0  0  0
   -4.4808    2.0496    0.1597 C   0  0  1  0  0  0  0  0  0  0  0  0
   -3.0562    1.9067    0.7267 C   0  0  0  0  0  0  0  0  0  0  0  0
   -0.8752    0.6185    0.6561 C   0  0  1  0  0  0  0  0  0  0  0  0
   -0.0332   -0.5032    0.0120 C   0  0  2  0  0  0  0  0  0  0  0  0
   -2.1986   -1.7872   -0.3848 C   0  0  0  0  0  0  0  0  0  0  0  0
   -0.7786   -1.8413    0.2222 C   0  0  0  0  0  0  0  0  0  0  0  0
   -6.7020    0.8676   -0.2848 C   0  0  0  0  0  0  0  0  0  0  0  0
   -4.5329   -0.4716   -1.8717 C   0  0  0  0  0  0  0  0  0  0  0  0
   -5.4032   -1.7225    0.0856 C   0  0  0  0  0  0  0  0  0  0  0  0
    1.2699   -0.3421    0.8457 C   0  0  1  0  0  0  0  0  0  0  0  0
    0.0616    1.8294    0.6451 C   0  0  0  0  0  0  0  0  0  0  0  0
    0.2477   -0.2775   -1.5161 C   0  0  0  0  0  0  0  0  0  0  0  0
    2.4669   -1.3198    0.5077 C   0  0  1  0  0  0  0  0  0  0  0  0
    1.4732    1.2096    0.8508 C   0  0  1  0  0  0  0  0  0  0  0  0
   -7.4731   -0.4418   -0.2826 C   0  0  0  0  0  0  0  0  0  0  0  0
    6.3428   -0.9692   -0.1400 C   0  0  2  0  0  0  0  0  0  0  0  0
   -6.8739   -1.6302   -0.0750 C   0  0  0  0  0  0  0  0  0  0  0  0
    3.8612   -0.6290    0.3672 C   0  0  1  0  0  0  0  0  0  0  0  0
    6.2940    0.4014   -0.7297 C   0  0  1  0  0  0  0  0  0  0  0  0
    5.0003   -1.6499    0.1418 C   0  0  0  0  0  0  0  0  0  0  0  0
    4.9193    1.0973   -0.8491 C   0  0  1  0  0  0  0  0  0  0  0  0
    2.4714   -2.4730    1.5382 C   0  0  0  0  0  0  0  0  0  0  0  0
    7.5681   -1.8723   -0.3116 C   0  0  0  0  0  0  0  0  0  0  0  0
    7.4940    1.1566   -1.3169 C   0  0  0  0  0  0  0  0  0  0  0  0
   -3.0822   -0.8217    1.3139 H   0  0  0  0  0  0  0  0  0  0  0  0
   -2.1920    1.0045   -1.0312 H   0  0  0  0  0  0  0  0  0  0  0  0
   -2.5178    2.8671    0.5771 H   0  0  0  0  0  0  0  0  0  0  0  0
   -3.0963    1.7335    1.8223 H   0  0  0  0  0  0  0  0  0  0  0  0
   -1.0292    0.3596    1.7309 H   0  0  0  0  0  0  0  0  0  0  0  0
   -2.6746   -2.7673   -0.1957 H   0  0  0  0  0  0  0  0  0  0  0  0
   -2.1143   -1.6856   -1.4813 H   0  0  0  0  0  0  0  0  0  0  0  0
   -0.2025   -2.6807   -0.2234 H   0  0  0  0  0  0  0  0  0  0  0  0
   -0.8839   -2.0429    1.3113 H   0  0  0  0  0  0  0  0  0  0  0  0
   -7.2573    1.6122    0.3269 H   0  0  0  0  0  0  0  0  0  0  0  0
   -6.6947    1.2561   -1.3240 H   0  0  0  0  0  0  0  0  0  0  0  0
   -3.9304    0.3575   -2.2824 H   0  0  0  0  0  0  0  0  0  0  0  0
   -5.5496   -0.3947   -2.3034 H   0  0  0  0  0  0  0  0  0  0  0  0
   -4.1263   -1.4117   -2.2950 H   0  0  0  0  0  0  0  0  0  0  0  0
   -0.6733   -0.2106   -2.1221 H   0  0  0  0  0  0  0  0  0  0  0  0
    0.8357   -1.1131   -1.9429 H   0  0  0  0  0  0  0  0  0  0  0  0
    0.8132    0.6504   -1.7244 H   0  0  0  0  0  0  0  0  0  0  0  0
    2.2784   -1.7984   -0.4726 H   0  0  0  0  0  0  0  0  0  0  0  0
   -8.5459   -0.4135   -0.4455 H   0  0  0  0  0  0  0  0  0  0  0  0
   -7.4766   -2.5318   -0.0200 H   0  0  0  0  0  0  0  0  0  0  0  0
    4.0593   -0.0514    1.2993 H   0  0  0  0  0  0  0  0  0  0  0  0
    5.1318   -2.2877    1.0396 H   0  0  0  0  0  0  0  0  0  0  0  0
    4.7551   -2.2931   -0.7312 H   0  0  0  0  0  0  0  0  0  0  0  0
    4.8984    1.5208   -1.8800 H   0  0  0  0  0  0  0  0  0  0  0  0
    2.7272   -2.0865    2.5484 H   0  0  0  0  0  0  0  0  0  0  0  0
    3.1854   -3.2741    1.2639 H   0  0  0  0  0  0  0  0  0  0  0  0
    1.4745   -2.9570    1.5868 H   0  0  0  0  0  0  0  0  0  0  0  0
    7.6378   -2.5585    0.5583 H   0  0  0  0  0  0  0  0  0  0  0  0
    7.4508   -2.4800   -1.2328 H   0  0  0  0  0  0  0  0  0  0  0  0
    8.5245   -1.3211   -0.3621 H   0  0  0  0  0  0  0  0  0  0  0  0
    8.4674    0.6695   -1.1300 H   0  0  0  0  0  0  0  0  0  0  0  0
    7.5391    2.1777   -0.8832 H   0  0  0  0  0  0  0  0  0  0  0  0
    7.3618    1.2476   -2.4154 H   0  0  0  0  0  0  0  0  0  0  0  0
    4.1614    2.7958   -0.2964 H   0  0  0  0  0  0  0  0  0  0  0  0
   -0.2171    2.6276    1.3655 H   0  0  0  0  0  0  0  0  0  0  0  0
    0.0232    2.2813   -0.3707 H   0  0  0  0  0  0  0  0  0  0  0  0
    0.9804   -0.5684    1.8957 H   0  0  0  0  0  0  0  0  0  0  0  0
    2.0500    1.5361   -0.0308 H   0  0  0  0  0  0  0  0  0  0  0  0
    2.1348    1.6743    1.9835 O   0  0  0  0  0  0  0  0  0  0  0  0
    1.6856    1.6104    3.2694 C   0  0  0  0  0  0  0  0  0  0  0  0
    2.5762    2.0617    4.3807 C   0  0  0  0  0  0  0  0  0  0  0  0
    3.4990    1.4454    4.3874 H   0  0  0  0  0  0  0  0  0  0  0  0
    2.0657    1.9534    5.3622 H   0  0  0  0  0  0  0  0  0  0  0  0
    2.8454    3.1277    4.2319 H   0  0  0  0  0  0  0  0  0  0  0  0
    0.5629    1.2014    3.5285 O   0  0  0  0  0  0  0  0  0  0  0  0
   -5.5065    0.5092    1.7179 O   0  0  0  0  0  0  0  0  0  0  0  0
   -5.0198    2.8510    0.7174 H   0  0  0  0  0  0  0  0  0  0  0  0
   -4.4210    2.4226   -1.1936 O   0  0  0  0  0  0  0  0  0  0  0  0
   -4.6722    0.2704    2.1854 H   0  0  0  0  0  0  0  0  0  0  0  0
   -4.0730    3.3520   -1.2256 H   0  0  0  0  0  0  0  0  0  0  0  0
  1 24  1  0  0  0  0
  1 27  1  0  0  0  0
  2 26  1  0  0  0  0
  2 29  1  0  0  0  0
  3 17  2  0  0  0  0
  4 29  1  0  0  0  0
  4 66  1  0  0  0  0
  5  6  1  0  0  0  0
  5  9  1  0  0  0  0
  5 15  1  0  0  0  0
  5 78  1  1  0  0  0
  6  7  1  0  0  0  0
  6 16  1  6  0  0  0
  6 17  1  0  0  0  0
  7  8  1  0  0  0  0
  7 13  1  0  0  0  0
  7 33  1  1  0  0  0
  8 10  1  0  0  0  0
  8 11  1  0  0  0  0
  8 34  1  6  0  0  0
  9 10  1  0  0  0  0
  9 79  1  1  0  0  0
  9 80  1  0  0  0  0
 10 35  1  0  0  0  0
 10 36  1  0  0  0  0
 11 12  1  0  0  0  0
 11 19  1  0  0  0  0
 11 37  1  1  0  0  0
 12 14  1  0  0  0  0
 12 18  1  0  0  0  0
 12 20  1  6  0  0  0
 13 14  1  0  0  0  0
 13 38  1  0  0  0  0
 13 39  1  0  0  0  0
 14 40  1  0  0  0  0
 14 41  1  0  0  0  0
 15 23  1  0  0  0  0
 15 42  1  0  0  0  0
 15 43  1  0  0  0  0
 16 44  1  0  0  0  0
 16 45  1  0  0  0  0
 16 46  1  0  0  0  0
 17 25  1  0  0  0  0
 18 21  1  0  0  0  0
 18 22  1  0  0  0  0
 18 69  1  1  0  0  0
 19 22  1  0  0  0  0
 19 67  1  0  0  0  0
 19 68  1  0  0  0  0
 20 47  1  0  0  0  0
 20 48  1  0  0  0  0
 20 49  1  0  0  0  0
 21 26  1  0  0  0  0
 21 30  1  0  0  0  0
 21 50  1  6  0  0  0
 22 70  1  6  0  0  0
 22 71  1  0  0  0  0
 23 25  2  0  0  0  0
 23 51  1  0  0  0  0
 24 27  1  0  0  0  0
 24 28  1  0  0  0  0
 24 31  1  6  0  0  0
 25 52  1  0  0  0  0
 26 28  1  0  0  0  0
 26 53  1  1  0  0  0
 27 29  1  0  0  0  0
 27 32  1  6  0  0  0
 28 54  1  0  0  0  0
 28 55  1  0  0  0  0
 29 56  1  6  0  0  0
 30 57  1  0  0  0  0
 30 58  1  0  0  0  0
 30 59  1  0  0  0  0
 31 60  1  0  0  0  0
 31 61  1  0  0  0  0
 31 62  1  0  0  0  0
 32 63  1  0  0  0  0
 32 64  1  0  0  0  0
 32 65  1  0  0  0  0
 71 72  1  0  0  0  0
 72 73  1  0  0  0  0
 72 77  2  0  0  0  0
 73 74  1  0  0  0  0
 73 75  1  0  0  0  0
 73 76  1  0  0  0  0
 78 81  1  0  0  0  0
 80 82  1  0  0  0  0
M  END
