44567001
 OpenBabel05141720103D

 70 75  0  0  1  0  0  0  0  0999 V2000
   -1.6449    0.2699   -2.3899 O   0  0  0  0  0  0  0  0  0  0  0  0
   -3.8236   -1.9098   -1.2708 O   0  0  0  0  0  0  0  0  0  0  0  0
   -1.7467    2.3295   -0.9719 O   0  0  0  0  0  0  0  0  0  0  0  0
   -3.7491    1.7950    1.0639 O   0  0  0  0  0  0  0  0  0  0  0  0
    2.7221    1.9848   -0.4285 O   0  0  0  0  0  0  0  0  0  0  0  0
   -0.6861    4.3571   -1.0707 O   0  0  0  0  0  0  0  0  0  0  0  0
   -1.4601   -1.4659   -0.7143 C   0  0  1  0  0  0  0  0  0  0  0  0
   -1.1015    0.0094   -1.0668 C   0  0  2  0  0  0  0  0  0  0  0  0
   -0.6298   -1.9279    0.4927 C   0  0  2  0  0  0  0  0  0  0  0  0
   -2.9082   -1.7098   -0.1930 C   0  0  1  0  0  0  0  0  0  0  0  0
    0.8813   -1.9133    0.2273 C   0  0  1  0  0  0  0  0  0  0  0  0
   -1.7159    1.1275   -0.1198 C   0  0  2  0  0  0  0  0  0  0  0  0
    1.3495   -0.4849   -0.1814 C   0  0  2  0  0  0  0  0  0  0  0  0
    0.4407    0.1295   -1.2887 C   0  0  0  0  0  0  0  0  0  0  0  0
   -3.4641   -0.5950    0.7378 C   0  0  1  0  0  0  0  0  0  0  0  0
   -1.2813   -3.2452    0.9075 C   0  0  0  0  0  0  0  0  0  0  0  0
   -2.7734   -3.0639    0.5663 C   0  0  0  0  0  0  0  0  0  0  0  0
   -3.2113    0.8179    0.1642 C   0  0  1  0  0  0  0  0  0  0  0  0
   -1.2099   -2.3905   -1.9616 C   0  0  0  0  0  0  0  0  0  0  0  0
    2.8991   -0.4572   -0.5130 C   0  0  1  0  0  0  0  0  0  0  0  0
    1.6549   -2.3922    1.4616 C   0  0  0  0  0  0  0  0  0  0  0  0
   -0.9342    1.6791    1.0640 C   0  0  0  0  0  0  0  0  0  0  0  0
   -4.9697   -0.7765    1.0218 C   0  0  0  0  0  0  0  0  0  0  0  0
    3.6988   -1.3415    0.4493 C   0  0  0  0  0  0  0  0  0  0  0  0
    3.1253   -2.1697    1.3397 C   0  0  0  0  0  0  0  0  0  0  0  0
    3.1858   -0.8808   -1.9669 C   0  0  0  0  0  0  0  0  0  0  0  0
    3.4334    0.9859   -0.3174 C   0  0  0  0  0  0  0  0  0  0  0  0
   -0.4524    2.9053    0.8142 C   0  0  0  0  0  0  0  0  0  0  0  0
   -0.9357    3.3075   -0.5049 C   0  0  0  0  0  0  0  0  0  0  0  0
   -0.8251    1.0490    2.4171 C   0  0  0  0  0  0  0  0  0  0  0  0
    5.2056   -1.2338    0.4011 C   0  0  0  0  0  0  0  0  0  0  0  0
    4.8800    1.2045   -0.0551 C   0  0  0  0  0  0  0  0  0  0  0  0
    5.6755    0.1767    0.2513 C   0  0  0  0  0  0  0  0  0  0  0  0
    0.3710    3.8293    1.6348 C   0  0  0  0  0  0  0  0  0  0  0  0
   -0.8105   -1.2516    1.3282 H   0  0  0  0  0  0  0  0  0  0  0  0
    1.1120   -2.6082   -0.5896 H   0  0  0  0  0  0  0  0  0  0  0  0
    1.2272    0.1478    0.7033 H   0  0  0  0  0  0  0  0  0  0  0  0
    0.6986    1.1784   -1.4632 H   0  0  0  0  0  0  0  0  0  0  0  0
    0.6728   -0.3518   -2.2456 H   0  0  0  0  0  0  0  0  0  0  0  0
   -2.9763   -0.6802    1.7116 H   0  0  0  0  0  0  0  0  0  0  0  0
   -1.1426   -3.4453    1.9754 H   0  0  0  0  0  0  0  0  0  0  0  0
   -0.8630   -4.0966    0.3597 H   0  0  0  0  0  0  0  0  0  0  0  0
   -3.1220   -3.9065   -0.0430 H   0  0  0  0  0  0  0  0  0  0  0  0
   -3.3652   -3.0843    1.4872 H   0  0  0  0  0  0  0  0  0  0  0  0
   -3.7913    0.9455   -0.7572 H   0  0  0  0  0  0  0  0  0  0  0  0
   -1.8543   -2.1170   -2.8043 H   0  0  0  0  0  0  0  0  0  0  0  0
   -1.4138   -3.4450   -1.7519 H   0  0  0  0  0  0  0  0  0  0  0  0
   -0.1808   -2.3401   -2.3258 H   0  0  0  0  0  0  0  0  0  0  0  0
    1.4761   -3.4646    1.6047 H   0  0  0  0  0  0  0  0  0  0  0  0
    1.3018   -1.8861    2.3681 H   0  0  0  0  0  0  0  0  0  0  0  0
   -2.6121    0.2250   -2.3433 H   0  0  0  0  0  0  0  0  0  0  0  0
   -3.9389   -1.0676   -1.7386 H   0  0  0  0  0  0  0  0  0  0  0  0
   -5.1970   -1.7902    1.3644 H   0  0  0  0  0  0  0  0  0  0  0  0
   -5.3050   -0.0913    1.8077 H   0  0  0  0  0  0  0  0  0  0  0  0
   -5.5737   -0.5787    0.1299 H   0  0  0  0  0  0  0  0  0  0  0  0
    3.7496   -2.7438    2.0203 H   0  0  0  0  0  0  0  0  0  0  0  0
    4.2581   -0.9656   -2.1753 H   0  0  0  0  0  0  0  0  0  0  0  0
    2.7327   -1.8506   -2.1990 H   0  0  0  0  0  0  0  0  0  0  0  0
    2.8090   -0.1415   -2.6824 H   0  0  0  0  0  0  0  0  0  0  0  0
   -3.4803    1.5691    1.9690 H   0  0  0  0  0  0  0  0  0  0  0  0
   -0.0070    0.3298    2.4675 H   0  0  0  0  0  0  0  0  0  0  0  0
   -0.6306    1.7958    3.1945 H   0  0  0  0  0  0  0  0  0  0  0  0
   -1.7448    0.5580    2.7286 H   0  0  0  0  0  0  0  0  0  0  0  0
    5.5929   -1.8305   -0.4328 H   0  0  0  0  0  0  0  0  0  0  0  0
    5.6512   -1.6426    1.3166 H   0  0  0  0  0  0  0  0  0  0  0  0
    5.2647    2.2152   -0.1261 H   0  0  0  0  0  0  0  0  0  0  0  0
    6.7336    0.3657    0.4113 H   0  0  0  0  0  0  0  0  0  0  0  0
    1.2035    4.2246    1.0431 H   0  0  0  0  0  0  0  0  0  0  0  0
    0.8075    3.3366    2.5077 H   0  0  0  0  0  0  0  0  0  0  0  0
   -0.2336    4.6727    1.9823 H   0  0  0  0  0  0  0  0  0  0  0  0
  1 51  1  0  0  0  0
  2 52  1  0  0  0  0
  3 29  1  0  0  0  0
  4 18  1  0  0  0  0
  4 60  1  0  0  0  0
  5 27  2  0  0  0  0
  6 29  2  0  0  0  0
  7  8  1  0  0  0  0
  7  9  1  0  0  0  0
  7 10  1  0  0  0  0
  7 19  1  6  0  0  0
  8  1  1  6  0  0  0
  8 12  1  0  0  0  0
  8 14  1  0  0  0  0
  9 11  1  0  0  0  0
  9 16  1  0  0  0  0
  9 35  1  1  0  0  0
 10  2  1  6  0  0  0
 10 15  1  0  0  0  0
 10 17  1  0  0  0  0
 11 13  1  0  0  0  0
 11 21  1  0  0  0  0
 11 36  1  6  0  0  0
 12  3  1  6  0  0  0
 12 18  1  0  0  0  0
 12 22  1  0  0  0  0
 13 14  1  0  0  0  0
 13 20  1  0  0  0  0
 13 37  1  1  0  0  0
 14 38  1  0  0  0  0
 14 39  1  0  0  0  0
 15 18  1  0  0  0  0
 15 23  1  0  0  0  0
 15 40  1  1  0  0  0
 16 17  1  0  0  0  0
 16 41  1  0  0  0  0
 16 42  1  0  0  0  0
 17 43  1  0  0  0  0
 17 44  1  0  0  0  0
 18 45  1  6  0  0  0
 19 46  1  0  0  0  0
 19 47  1  0  0  0  0
 19 48  1  0  0  0  0
 20 24  1  0  0  0  0
 20 26  1  6  0  0  0
 20 27  1  0  0  0  0
 21 25  1  0  0  0  0
 21 49  1  0  0  0  0
 21 50  1  0  0  0  0
 22 28  2  0  0  0  0
 22 30  1  0  0  0  0
 23 53  1  0  0  0  0
 23 54  1  0  0  0  0
 23 55  1  0  0  0  0
 24 25  2  0  0  0  0
 24 31  1  0  0  0  0
 25 56  1  0  0  0  0
 26 57  1  0  0  0  0
 26 58  1  0  0  0  0
 26 59  1  0  0  0  0
 27 32  1  0  0  0  0
 28 29  1  0  0  0  0
 28 34  1  0  0  0  0
 30 61  1  0  0  0  0
 30 62  1  0  0  0  0
 30 63  1  0  0  0  0
 31 33  1  0  0  0  0
 31 64  1  0  0  0  0
 31 65  1  0  0  0  0
 32 33  2  0  0  0  0
 32 66  1  0  0  0  0
 33 67  1  0  0  0  0
 34 68  1  0  0  0  0
 34 69  1  0  0  0  0
 34 70  1  0  0  0  0
M  END
