11237795
 OpenBabel05141720403D

 77 82  0  0  1  0  0  0  0  0999 V2000
    5.1803    0.9019   -1.3769 Cl  0  0  0  0  0  0  0  0  0  0  0  0
    0.2624    2.6418    1.0408 O   0  0  0  0  0  0  0  0  0  0  0  0
   -2.2346    2.4191   -0.1172 O   0  0  0  0  0  0  0  0  0  0  0  0
   -4.7100   -1.2037    1.7059 O   0  0  0  0  0  0  0  0  0  0  0  0
   -4.4551   -0.8833   -1.4208 O   0  0  0  0  0  0  0  0  0  0  0  0
    4.2864    1.0570    2.5510 O   0  0  0  0  0  0  0  0  0  0  0  0
    3.6043   -2.4777   -1.6659 O   0  0  0  0  0  0  0  0  0  0  0  0
   -4.3583   -3.0117   -0.3737 O   0  0  0  0  0  0  0  0  0  0  0  0
   -0.5474    0.6110   -0.0837 C   0  0  1  0  0  0  0  0  0  0  0  0
    0.6291    1.6192    0.1001 C   0  0  2  0  0  0  0  0  0  0  0  0
    1.9578    0.9680    0.5919 C   0  0  1  0  0  0  0  0  0  0  0  0
   -1.5624    1.4491   -0.9325 C   0  0  2  0  0  0  0  0  0  0  0  0
    2.3763   -0.2747   -0.2540 C   0  0  1  0  0  0  0  0  0  0  0  0
   -0.0631   -0.6434   -0.8549 C   0  0  0  0  0  0  0  0  0  0  0  0
    0.7185    2.3235   -1.2714 C   0  0  0  0  0  0  0  0  0  0  0  0
    3.7453   -0.9052    0.2190 C   0  0  1  0  0  0  0  0  0  0  0  0
   -0.6795    2.2444   -1.9078 C   0  0  0  0  0  0  0  0  0  0  0  0
    1.1950   -1.2713   -0.2589 C   0  0  0  0  0  0  0  0  0  0  0  0
   -2.6424    0.6527   -1.6642 C   0  0  1  0  0  0  0  0  0  0  0  0
    3.0896    2.0100    0.7155 C   0  0  0  0  0  0  0  0  0  0  0  0
    4.8558    0.2106    0.3098 C   0  0  2  0  0  0  0  0  0  0  0  0
   -1.1621    0.1628    1.2607 C   0  0  0  0  0  0  0  0  0  0  0  0
    4.4214    1.4114    1.1763 C   0  0  2  0  0  0  0  0  0  0  0  0
   -3.4771   -0.1497   -0.6756 C   0  0  1  0  0  0  0  0  0  0  0  0
   -5.1803    0.0238    1.1464 C   0  0  2  0  0  0  0  0  0  0  0  0
   -5.6823   -1.2993    0.6463 C   0  0  1  0  0  0  0  0  0  0  0  0
   -4.1951    0.7739    0.3130 C   0  0  0  0  0  0  0  0  0  0  0  0
    3.5363   -1.6757    1.5509 C   0  0  0  0  0  0  0  0  0  0  0  0
    4.2858   -1.9583   -0.7850 C   0  0  0  0  0  0  0  0  0  0  0  0
    6.2050   -0.3843    0.7841 C   0  0  0  0  0  0  0  0  0  0  0  0
   -3.5291    1.5858   -2.4849 C   0  0  0  0  0  0  0  0  0  0  0  0
   -5.1577   -1.8623   -0.6402 C   0  0  1  0  0  0  0  0  0  0  0  0
   -5.9969    0.8206    2.1002 C   0  0  0  0  0  0  0  0  0  0  0  0
    5.7076   -2.3857   -0.6525 C   0  0  0  0  0  0  0  0  0  0  0  0
    6.5618   -1.6639    0.0815 C   0  0  0  0  0  0  0  0  0  0  0  0
   -6.9853   -1.8364    1.1268 C   0  0  0  0  0  0  0  0  0  0  0  0
    1.7680    0.6256    1.6180 H   0  0  0  0  0  0  0  0  0  0  0  0
    2.5141    0.0441   -1.2945 H   0  0  0  0  0  0  0  0  0  0  0  0
    0.1482   -0.3979   -1.9031 H   0  0  0  0  0  0  0  0  0  0  0  0
   -0.8430   -1.4123   -0.8809 H   0  0  0  0  0  0  0  0  0  0  0  0
    1.4295    1.8293   -1.9410 H   0  0  0  0  0  0  0  0  0  0  0  0
    1.0308    3.3706   -1.1885 H   0  0  0  0  0  0  0  0  0  0  0  0
   -1.0665    3.2532   -2.0928 H   0  0  0  0  0  0  0  0  0  0  0  0
   -0.5860    1.7401   -2.8769 H   0  0  0  0  0  0  0  0  0  0  0  0
    0.9753   -1.6202    0.7559 H   0  0  0  0  0  0  0  0  0  0  0  0
    1.4305   -2.1637   -0.8442 H   0  0  0  0  0  0  0  0  0  0  0  0
   -2.1931   -0.0486   -2.3791 H   0  0  0  0  0  0  0  0  0  0  0  0
    3.2279    2.5249   -0.2411 H   0  0  0  0  0  0  0  0  0  0  0  0
    2.7951    2.7793    1.4394 H   0  0  0  0  0  0  0  0  0  0  0  0
   -1.7717   -0.7365    1.2456 H   0  0  0  0  0  0  0  0  0  0  0  0
   -0.3494   -0.1061    1.9481 H   0  0  0  0  0  0  0  0  0  0  0  0
   -1.6854    0.9648    1.7847 H   0  0  0  0  0  0  0  0  0  0  0  0
    5.1931    2.1909    1.1381 H   0  0  0  0  0  0  0  0  0  0  0  0
   -2.8779   -0.9142   -0.2007 H   0  0  0  0  0  0  0  0  0  0  0  0
    0.8622    3.3985    0.9372 H   0  0  0  0  0  0  0  0  0  0  0  0
   -3.5489    1.2551    1.0380 H   0  0  0  0  0  0  0  0  0  0  0  0
   -4.7736    1.5445   -0.2057 H   0  0  0  0  0  0  0  0  0  0  0  0
    2.9521   -2.5893    1.3875 H   0  0  0  0  0  0  0  0  0  0  0  0
    4.4742   -2.0096    2.0035 H   0  0  0  0  0  0  0  0  0  0  0  0
    3.0090   -1.0827    2.3018 H   0  0  0  0  0  0  0  0  0  0  0  0
   -1.5704    2.9955    0.2955 H   0  0  0  0  0  0  0  0  0  0  0  0
    6.1935   -0.5796    1.8627 H   0  0  0  0  0  0  0  0  0  0  0  0
    7.0114    0.3429    0.6224 H   0  0  0  0  0  0  0  0  0  0  0  0
   -2.9683    1.9993   -3.3311 H   0  0  0  0  0  0  0  0  0  0  0  0
   -4.3823    1.0574   -2.9235 H   0  0  0  0  0  0  0  0  0  0  0  0
   -3.9198    2.4407   -1.9259 H   0  0  0  0  0  0  0  0  0  0  0  0
   -5.9890   -2.1972   -1.2686 H   0  0  0  0  0  0  0  0  0  0  0  0
   -6.8493    1.2737    1.5835 H   0  0  0  0  0  0  0  0  0  0  0  0
   -6.3790    0.2295    2.9383 H   0  0  0  0  0  0  0  0  0  0  0  0
   -5.4030    1.6315    2.5364 H   0  0  0  0  0  0  0  0  0  0  0  0
    6.0215   -3.2844   -1.1700 H   0  0  0  0  0  0  0  0  0  0  0  0
    7.5882   -2.0077    0.1762 H   0  0  0  0  0  0  0  0  0  0  0  0
    4.0763    1.8660    3.0476 H   0  0  0  0  0  0  0  0  0  0  0  0
   -7.0638   -2.9079    0.9114 H   0  0  0  0  0  0  0  0  0  0  0  0
   -7.1283   -1.7246    2.2060 H   0  0  0  0  0  0  0  0  0  0  0  0
   -7.8126   -1.3316    0.6177 H   0  0  0  0  0  0  0  0  0  0  0  0
   -3.8685   -2.8591    0.4518 H   0  0  0  0  0  0  0  0  0  0  0  0
  2 55  1  0  0  0  0
  3 61  1  0  0  0  0
  4 25  1  0  0  0  0
  4 26  1  0  0  0  0
  5 24  1  0  0  0  0
  5 32  1  0  0  0  0
  6 23  1  0  0  0  0
  6 73  1  0  0  0  0
  7 29  2  0  0  0  0
  8 32  1  0  0  0  0
  8 77  1  0  0  0  0
  9 10  1  0  0  0  0
  9 12  1  0  0  0  0
  9 14  1  0  0  0  0
  9 22  1  1  0  0  0
 10  2  1  1  0  0  0
 10 11  1  0  0  0  0
 10 15  1  0  0  0  0
 11 13  1  0  0  0  0
 11 20  1  0  0  0  0
 11 37  1  1  0  0  0
 12  3  1  1  0  0  0
 12 17  1  0  0  0  0
 12 19  1  0  0  0  0
 13 16  1  0  0  0  0
 13 18  1  0  0  0  0
 13 38  1  6  0  0  0
 14 18  1  0  0  0  0
 14 39  1  0  0  0  0
 14 40  1  0  0  0  0
 15 17  1  0  0  0  0
 15 41  1  0  0  0  0
 15 42  1  0  0  0  0
 16 21  1  0  0  0  0
 16 28  1  1  0  0  0
 16 29  1  0  0  0  0
 17 43  1  0  0  0  0
 17 44  1  0  0  0  0
 18 45  1  0  0  0  0
 18 46  1  0  0  0  0
 19 24  1  0  0  0  0
 19 31  1  0  0  0  0
 19 47  1  6  0  0  0
 20 23  1  0  0  0  0
 20 48  1  0  0  0  0
 20 49  1  0  0  0  0
 21  1  1  6  0  0  0
 21 23  1  0  0  0  0
 21 30  1  0  0  0  0
 22 50  1  0  0  0  0
 22 51  1  0  0  0  0
 22 52  1  0  0  0  0
 23 53  1  6  0  0  0
 24 27  1  0  0  0  0
 24 54  1  1  0  0  0
 25 26  1  0  0  0  0
 25 27  1  0  0  0  0
 25 33  1  1  0  0  0
 26 32  1  0  0  0  0
 26 36  1  1  0  0  0
 27 56  1  0  0  0  0
 27 57  1  0  0  0  0
 28 58  1  0  0  0  0
 28 59  1  0  0  0  0
 28 60  1  0  0  0  0
 29 34  1  0  0  0  0
 30 35  1  0  0  0  0
 30 62  1  0  0  0  0
 30 63  1  0  0  0  0
 31 64  1  0  0  0  0
 31 65  1  0  0  0  0
 31 66  1  0  0  0  0
 32 67  1  6  0  0  0
 33 68  1  0  0  0  0
 33 69  1  0  0  0  0
 33 70  1  0  0  0  0
 34 35  2  0  0  0  0
 34 71  1  0  0  0  0
 35 72  1  0  0  0  0
 36 74  1  0  0  0  0
 36 75  1  0  0  0  0
 36 76  1  0  0  0  0
M  END
