*****
 OpenBabel05141711123D

 73 79  0  0  1  0  0  0  0  0999 V2000
   -1.5975    0.2193   -2.4541 O   0  0  0  0  0  0  0  0  0  0  0  0
   -3.8582   -1.9283   -1.3446 O   0  0  0  0  0  0  0  0  0  0  0  0
   -1.8161    2.3109   -0.9738 O   0  0  0  0  0  0  0  0  0  0  0  0
   -3.8185    1.7857    0.9864 O   0  0  0  0  0  0  0  0  0  0  0  0
    3.1965    1.5810   -1.6463 O   0  0  0  0  0  0  0  0  0  0  0  0
   -0.8200    4.3521   -1.1255 O   0  0  0  0  0  0  0  0  0  0  0  0
   -1.4756   -1.5116   -0.7525 C   0  0  1  0  0  0  0  0  0  0  0  0
   -1.1038   -0.0243   -1.1194 C   0  0  2  0  0  0  0  0  0  0  0  0
   -0.6614   -1.9609    0.4839 C   0  0  2  0  0  0  0  0  0  0  0  0
   -2.9423   -1.7650   -0.2492 C   0  0  1  0  0  0  0  0  0  0  0  0
    0.8678   -1.9835    0.2416 C   0  0  1  0  0  0  0  0  0  0  0  0
   -1.7465    1.0809   -0.1725 C   0  0  2  0  0  0  0  0  0  0  0  0
    1.3324   -0.5385   -0.1408 C   0  0  2  0  0  0  0  0  0  0  0  0
    0.4554    0.1045   -1.2715 C   0  0  0  0  0  0  0  0  0  0  0  0
   -3.4912   -0.6542    0.7118 C   0  0  1  0  0  0  0  0  0  0  0  0
   -1.3271   -3.2731    0.9333 C   0  0  0  0  0  0  0  0  0  0  0  0
   -2.8095   -3.1204    0.5182 C   0  0  0  0  0  0  0  0  0  0  0  0
   -3.2424    0.7700    0.1415 C   0  0  1  0  0  0  0  0  0  0  0  0
   -1.1754   -2.4642   -1.9779 C   0  0  0  0  0  0  0  0  0  0  0  0
    2.8801   -0.5047   -0.4305 C   0  0  1  0  0  0  0  0  0  0  0  0
    1.6192   -2.4830    1.5052 C   0  0  0  0  0  0  0  0  0  0  0  0
   -0.8725    1.5967    0.9841 C   0  0  0  0  0  0  0  0  0  0  0  0
   -5.0072   -0.8402    1.0083 C   0  0  0  0  0  0  0  0  0  0  0  0
    3.6354   -1.0617    0.8408 C   0  0  1  0  0  0  0  0  0  0  0  0
    3.1574   -2.4504    1.3419 C   0  0  2  0  0  0  0  0  0  0  0  0
    3.2582   -1.3082   -1.7176 C   0  0  0  0  0  0  0  0  0  0  0  0
    3.3939    0.9354   -0.6350 C   0  0  0  0  0  0  0  0  0  0  0  0
   -0.3719    2.8097    0.6635 C   0  0  0  0  0  0  0  0  0  0  0  0
   -0.9842    3.2903   -0.5614 C   0  0  0  0  0  0  0  0  0  0  0  0
   -1.0384    1.1524    2.4317 C   0  0  0  0  0  0  0  0  0  0  0  0
    5.1347   -0.9538    0.6196 C   0  0  0  0  0  0  0  0  0  0  0  0
    4.4865    1.3333    0.3443 C   0  0  2  0  0  0  0  0  0  0  0  0
    5.5642    0.2682    0.3481 C   0  0  0  0  0  0  0  0  0  0  0  0
    0.6517    3.6796    1.3408 C   0  0  0  0  0  0  0  0  0  0  0  0
   -0.8382   -1.2560    1.2889 H   0  0  0  0  0  0  0  0  0  0  0  0
    1.0863   -2.6829   -0.5638 H   0  0  0  0  0  0  0  0  0  0  0  0
    1.1777    0.0801    0.7418 H   0  0  0  0  0  0  0  0  0  0  0  0
    0.7048    1.1617   -1.3676 H   0  0  0  0  0  0  0  0  0  0  0  0
    0.7398   -0.3378   -2.2259 H   0  0  0  0  0  0  0  0  0  0  0  0
   -2.9826   -0.7558    1.6680 H   0  0  0  0  0  0  0  0  0  0  0  0
   -1.2301   -3.4150    2.0125 H   0  0  0  0  0  0  0  0  0  0  0  0
   -0.8792   -4.1347    0.4321 H   0  0  0  0  0  0  0  0  0  0  0  0
   -3.0924   -3.9586   -0.1243 H   0  0  0  0  0  0  0  0  0  0  0  0
   -3.4472   -3.1647    1.4027 H   0  0  0  0  0  0  0  0  0  0  0  0
   -3.7774    0.8234   -0.8110 H   0  0  0  0  0  0  0  0  0  0  0  0
   -1.8267   -2.2525   -2.8283 H   0  0  0  0  0  0  0  0  0  0  0  0
   -1.3229   -3.5174   -1.7377 H   0  0  0  0  0  0  0  0  0  0  0  0
   -0.1549   -2.3641   -2.3460 H   0  0  0  0  0  0  0  0  0  0  0  0
    1.3130   -3.5035    1.7466 H   0  0  0  0  0  0  0  0  0  0  0  0
    1.3425   -1.8615    2.3610 H   0  0  0  0  0  0  0  0  0  0  0  0
   -2.5657    0.2923   -2.4477 H   0  0  0  0  0  0  0  0  0  0  0  0
   -4.0474   -1.0577   -1.7399 H   0  0  0  0  0  0  0  0  0  0  0  0
   -5.2382   -1.8609    1.3159 H   0  0  0  0  0  0  0  0  0  0  0  0
   -5.3268   -0.1804    1.8178 H   0  0  0  0  0  0  0  0  0  0  0  0
   -5.6128   -0.6078    0.1291 H   0  0  0  0  0  0  0  0  0  0  0  0
    4.3387   -1.3159   -1.8736 H   0  0  0  0  0  0  0  0  0  0  0  0
    2.9268   -2.3442   -1.6835 H   0  0  0  0  0  0  0  0  0  0  0  0
    2.8238   -0.8580   -2.6115 H   0  0  0  0  0  0  0  0  0  0  0  0
   -3.5240    1.6711    1.9085 H   0  0  0  0  0  0  0  0  0  0  0  0
   -0.3586    0.3359    2.6768 H   0  0  0  0  0  0  0  0  0  0  0  0
   -0.7918    1.9736    3.1081 H   0  0  0  0  0  0  0  0  0  0  0  0
   -2.0533    0.8563    2.6819 H   0  0  0  0  0  0  0  0  0  0  0  0
    1.3666    4.0787    0.6179 H   0  0  0  0  0  0  0  0  0  0  0  0
    1.2140    3.1167    2.0888 H   0  0  0  0  0  0  0  0  0  0  0  0
    0.1688    4.5219    1.8413 H   0  0  0  0  0  0  0  0  0  0  0  0
    3.3731   -0.1182    1.9404 O   0  0  0  0  0  0  0  0  0  0  0  0
    3.6015   -3.5256    0.5044 O   0  0  0  0  0  0  0  0  0  0  0  0
    3.5992   -2.6149    2.3291 H   0  0  0  0  0  0  0  0  0  0  0  0
    3.0661   -3.5513   -0.3075 H   0  0  0  0  0  0  0  0  0  0  0  0
    3.8767    1.2671    1.6622 O   0  0  0  0  0  0  0  0  0  0  0  0
    4.8609    2.3369    0.1246 H   0  0  0  0  0  0  0  0  0  0  0  0
    5.7762   -1.8306    0.6651 H   0  0  0  0  0  0  0  0  0  0  0  0
    6.6023    0.5225    0.1509 H   0  0  0  0  0  0  0  0  0  0  0  0
  1 51  1  0  0  0  0
  2 52  1  0  0  0  0
  3 29  1  0  0  0  0
  4 18  1  0  0  0  0
  4 59  1  0  0  0  0
  5 27  2  0  0  0  0
  6 29  2  0  0  0  0
  7  8  1  0  0  0  0
  7  9  1  0  0  0  0
  7 10  1  0  0  0  0
  7 19  1  6  0  0  0
  8  1  1  6  0  0  0
  8 12  1  0  0  0  0
  8 14  1  0  0  0  0
  9 11  1  0  0  0  0
  9 16  1  0  0  0  0
  9 35  1  1  0  0  0
 10  2  1  6  0  0  0
 10 15  1  0  0  0  0
 10 17  1  0  0  0  0
 11 13  1  0  0  0  0
 11 21  1  0  0  0  0
 11 36  1  6  0  0  0
 12  3  1  6  0  0  0
 12 18  1  0  0  0  0
 12 22  1  0  0  0  0
 13 14  1  0  0  0  0
 13 20  1  0  0  0  0
 13 37  1  1  0  0  0
 14 38  1  0  0  0  0
 14 39  1  0  0  0  0
 15 18  1  0  0  0  0
 15 23  1  0  0  0  0
 15 40  1  1  0  0  0
 16 17  1  0  0  0  0
 16 41  1  0  0  0  0
 16 42  1  0  0  0  0
 17 43  1  0  0  0  0
 17 44  1  0  0  0  0
 18 45  1  6  0  0  0
 19 46  1  0  0  0  0
 19 47  1  0  0  0  0
 19 48  1  0  0  0  0
 20 24  1  0  0  0  0
 20 26  1  6  0  0  0
 20 27  1  0  0  0  0
 21 25  1  0  0  0  0
 21 49  1  0  0  0  0
 21 50  1  0  0  0  0
 22 28  2  0  0  0  0
 22 30  1  0  0  0  0
 23 53  1  0  0  0  0
 23 54  1  0  0  0  0
 23 55  1  0  0  0  0
 24 25  1  0  0  0  0
 24 31  1  6  0  0  0
 24 66  1  0  0  0  0
 25 67  1  0  0  0  0
 25 68  1  1  0  0  0
 26 56  1  0  0  0  0
 26 57  1  0  0  0  0
 26 58  1  0  0  0  0
 27 32  1  0  0  0  0
 28 29  1  0  0  0  0
 28 34  1  0  0  0  0
 30 60  1  0  0  0  0
 30 61  1  0  0  0  0
 30 62  1  0  0  0  0
 31 33  2  0  0  0  0
 31 72  1  0  0  0  0
 32 33  1  0  0  0  0
 32 70  1  0  0  0  0
 32 71  1  6  0  0  0
 33 73  1  0  0  0  0
 34 63  1  0  0  0  0
 34 64  1  0  0  0  0
 34 65  1  0  0  0  0
 67 69  1  0  0  0  0
 70 66  1  0  0  0  0
M  END
